out_measurements_parameter_topology_physical_preview/cases_parameter_error/case_param_topology_err_376848572394.m
function mpc = case_param_topology_err_376848572394
mpc.version = '2';
mpc.baseMVA = 100;

mpc.bus = [
    1 3 0 0 0 0 1 1.06 0 135 1 2 0 0 0 0 0 0;
    2 2 21.7 12.7 0 0 1 1.045 -3.17949654806 135 1 2 0 0 0 0 0 0;
    3 1 0 0 0 0 1 1.00187831094 -16.9944673312 135 1 2 0 0 0 0 0 0;
    4 2 94.2 19 0 0 1 1.01 -15.9919104705 135 1 2 0 0 0 0 0 0;
    5 1 47.8 -3.9 0 0 1 0.998593710757 -17.8259335741 135 1 2 0 0 0 0 0 0;
    6 1 7.6 1.6 0 0 1 0.999349491732 -16.0630558982 135 1 2 0 0 0 0 0 0;
    7 2 11.2 7.5 0 0 1 1.07 -21.5301271739 0.208 1 2 0 0 0 0 0 0;
    8 1 0 0 0 0 1 1.05137064725 -21.0345753618 14 1 2 0 0 0 0 0 0;
    9 2 0 0 0 0 1 1.09 -21.0345753618 12 1 2 0 0 0 0 0 0;
    10 1 29.5 16.6 0 19 1 1.04446738127 -22.6840509238 0.208 1 2 0 0 0 0 0 0;
    11 1 9 5.8 0 0 1 1.04135648474 -22.7638770679 0.208 1 2 0 0 0 0 0 0;
    12 1 3.5 1.8 0 0 1 1.05184963066 -22.2746609265 0.208 1 2 0 0 0 0 0 0;
    13 1 6.1 1.6 0 0 1 1.04602622367 -23.2129255912 0.208 1 2 0 0 0 0 0 0;
    14 1 13.5 5.8 0 0 1 1.0267333515 -23.9348907368 0.208 1 2 0 0 0 0 0 0;
    15 1 14.9 5 0 0 1 1.01847559109 -24.2598003205 0.208 1 2 0 0 0 0 0 0;
];

mpc.gen = [
    1 237.542173516 5.09877998105 0 0 1.06 1 1 1000000000 -1000000000 0 0 0 0 0 0 0 0 0 0 0 0 0 0 0 1;
    2 40 20.3068910837 1000000000 -1000000000 1.045 nan 1 1000000000 -1000000000 0 0 0 0 0 0 0 0 0 0 0 0 0 0 0 0;
    4 0 38.0323174 2000000000 -2000000000 1.01 nan 1 2000000000 -2000000000 0 0 0 0 0 0 0 0 0 0 0 0 0 0 0 0;
    7 0 23.6372576952 1000000000 -1000000000 1.07 nan 1 1000000000 -1000000000 0 0 0 0 0 0 0 0 0 0 0 0 0 0 0 0;
    9 0 23.90348804 1000000000 -1000000000 1.09 nan 1 1000000000 -1000000000 0 0 0 0 0 0 0 0 0 0 0 0 0 0 0 0;
];

mpc.branch = [
    1 2 0.01938 0.05917 0.0528 100 0 0 0 0 1 -360 360 102.573921407 -6.80898934522 -100.756628039 6.50820418386 0 0 0 0 0;
    1 6 0.05403 0.22304 0.0492 100 0 0 0 0 1 -360 360 134.968252109 11.9077693263 -126.105095348 19.4591676557 0 0 0 0 0;
    2 4 0.04699 0.19797 0.0438 100 0 0 0 0 1 -360 360 119.056628039 1.09868693466 -112.952085901 19.9943421404 0 0 0 0 0;
    3 5 0.05811 0.17632 0.034 100 0 0 0 0 1 -360 360 7.99983434441 -2.41679945299 -7.96249262644 -0.871510844611 0 0 0 0 0;
    3 6 0.05695 0.17388 0.0346 100 0 0 0 0 1 -360 360 -7.9998343444 2.41679945299 8.04593134323 -5.74031091851 0 0 0 0 0;
    4 5 0.06701 0.17103 0.0128 100 0 0 0 0 1 -360 360 18.7520859014 -0.962024678254 -18.5210315944 0.260680670627 0 0 0 0 0;
    5 6 0.01335 0.04211 0 100 0 0 0 0 1 -360 360 -66.4391725771 20.3923926504 67.0857967592 -18.3527413913 0 0 0 0 0;
    5 8 0 0.20912 -0 100 0 0 0.978 0 1 -360 360 28.7330564595 -13.9963144206 -28.7330564595 16.045247479 0 0 0 0 0;
    5 10 0 0.55618 -0 100 0 0 0.969 0 1 -360 360 16.3896403387 -1.88524805578 -16.3896403387 3.31063460369 0 0 0 0 0;
    6 7 0 0.25202 -0 100 0 0 0.932 0 1 -360 360 43.3733672456 3.0338846549 -43.3733672456 1.10990809495 0 0 0 0 0;
    7 12 0.09498 0.1989 0 100 0 0 0 0 1 -360 360 9.8028785773 5.13079098503 -9.70131871355 -4.91811192731 0 0 0 0 0;
    7 13 0.12291 0.25581 0 100 0 0 0 0 1 -360 360 14.426822839 3.284719219 -14.1917998984 -2.79557091185 0 0 0 0 0;
    7 14 0.06615 0.635346197343 0 100 0 0 0 0 1 -360 360 7.94366582939 6.61183945309 -7.88194841224 -6.0190665688 0 0 0 0 0;
    8 9 0 0.17615 -0 100 0 0 0 0 1 -360 360 -8.45009715728e-14 -23.0563540169 8.28301573385e-14 23.9034882171 0 0 0 0 0;
    8 10 0 0.11001 -0 100 0 0 0 0 1 -360 360 28.7330564596 7.01110653789 -28.7330564596 -6.14054091291 0 0 0 0 0;
    10 11 0.03181 0.0845 0 100 0 0 0 0 1 -360 360 2.83901103921 2.77774694147 -2.83441094212 -2.76552725571 0 0 0 0 0;
    10 15 0.12711 0.27038 0 100 0 0 0 0 1 -360 360 12.7836857591 4.17948946815 -12.5729169584 -3.73115599068 0 0 0 0 0;
    11 12 0.08205 0.19207 0 100 0 0 0 0 1 -360 360 -6.16558905787 -3.03447274429 6.20131871356 3.11811192731 0 0 0 0 0;
    13 14 0.22092 0.19988 0 100 0 0 0 0 1 -360 360 8.09179989828 1.19557091203 -7.95671122058 -1.07334782268 0 0 0 0 0;
    14 15 0.17093 0.34802 0 100 0 0 0 0 1 -360 360 2.33865963338 1.29241439157 -2.32708304164 -1.2688440092 0 0 0 0 0;
];

